Circuit: * D:\Arduino\DCAC_Seno\sPWM_AC.asc

.OP point found by inspection.

Date: Wed May 27 18:41:08 2020
Total elapsed time: 0.149 seconds.

tnom = 27
temp = 27
method = modified trap
totiter = 52842
traniter = 52842
tranpoints = 15664
accept = 12242
rejected = 3422
matrix size = 11
fillins = 0
solver = Normal
Matrix Compiler1: 198 bytes object code size  0.1/0.0/[0.0]
Matrix Compiler2: 575 bytes object code size  0.1/0.1/[0.1]

